*Heading
** Job name: Job-1 Model name: Model-1
** Generated by: Abaqus/CAE 6.12-1
*Preprint, echo=NO, model=NO, history=NO, contact=NO
**
** PARTS
**
*Part, name=Part-1
*End Part
**  
**
** ASSEMBLY
**
*Assembly, name=Assembly
**  
*Instance, name=Part-1-1, part=Part-1
*Node
      1,           0.,          50.
      2,          50.,           0.
      3,         100.,           0.
      4,         100.,         100.
      5,           0.,         100.
      6,           0.,           0.
      7,    3.9229548,   49.8458672
      8,   7.82172346,   49.3844185
      9,   11.6722679,   48.6184959
     10,   15.4508495,   47.5528259
     11,   19.1341724,   46.1939774
     12,   22.6995258,   44.5503273
     13,   26.1249275,   42.6320076
     14,   29.3892632,   40.4508514
     15,   32.4724007,    38.020298
     16,   35.3553391,   35.3553391
     17,    38.020298,   32.4724007
     18,   40.4508514,   29.3892632
     19,   42.6320076,   26.1249275
     20,   44.5503273,   22.6995258
** ... 552 like lines cut
*Element, type=CPS4R
  1,   8, 112, 155,   7
  2, 115,  11,  12, 100
  3,  15, 101, 114,  14
  4,  63, 139, 140,  62
  5, 113,  17,  18, 110
  6,  44, 124, 125,  43
  7,  21, 105, 111,  20
  8, 451, 120, 216, 154
  9, 105,  21,  22, 107
 10,   2,  26, 451,  25
 11, 154,  24,  25, 451
 12,  23, 106, 107,  22
 13, 110,  18,  19, 104
 14,  16, 102, 101,  15
 15, 158, 160, 102, 113
 16, 136,  66,  67, 135
 17,  11, 115, 103,  10
 18,  10, 103, 108,   9
 19,   9, 108, 112,   8
 20,  34,   3,  35, 133
** ... 511 like lines cut
*Nset, nset=Set-1, generate
   1,  572,    1
*Elset, elset=Set-1, generate
   1,  531,    1
** Section: Section-1
*Solid Section, elset=Set-1, material=Material-1
1.,
*End Instance
**  
*left
  1,  6, 73, 74, 75, 76, 77, 78, 79, 80, 81, 82, 83, 84, 85
 86, 87, 88, 89, 90
*Elset, elset=Set-1, instance=Part-1-1
  44,  45,  60,  63,  64,  65,  77, 115, 117, 141, 423, 427, 428, 429, 432, 434
 436, 447, 464, 472
*bottom
  2, 6, 26, 27, 28, 29, 30, 31, 32, 33, 34, 91, 92, 93, 94
 95, 96, 97, 98, 99
*Elset, elset=Set-2, instance=Part-1-1
  10,  20,  23,  26,  27,  71,  72,  87,  99, 140, 429, 430, 437, 442, 443, 444
 445, 465, 469, 491
*curve
  3,  4,  5, 35, 36, 37, 38, 39, 40, 41, 42, 43, 44, 45, 46, 47
 48, 49, 50, 51, 52, 53, 5, 54, 55, 56, 57, 58, 59, 60, 61, 62, 63
 64, 65, 66, 67, 68, 69, 70, 71, 72
*Elset, elset=Set-3, instance=Part-1-1
   4,   6,  16,  20,  21,  28,  29,  32,  33,  35,  37,  38,  40,  41,  42,  43
  44,  47,  49,  50,  55,  56,  57,  58,  59,  74,  75,  80,  82,  88,  89,  97
 100, 111, 112, 114, 119, 138, 139
*corner
  6
*End Assembly
** 
** MATERIALS
** 
*Material, name=Material-1
*Density
1.,
*Elastic
1., 0.1
** ----------------------------------------------------------------
** 
** STEP: Step-1
** 
*Step, name=Step-1
*Static
1., 1., 1e-05, 1.
** 
** BOUNDARY CONDITIONS
** 
** Name: BC-1 Type: Symmetry/Antisymmetry/Encastre
*Boundary
Set-1, XSYMM
** Name: BC-2 Type: Symmetry/Antisymmetry/Encastre
*Boundary
Set-2, XSYMM
** Name: BC-3 Type: Symmetry/Antisymmetry/Encastre
*Boundary
Set-3, ZSYMM
** 
** OUTPUT REQUESTS
** 
*Restart, write, frequency=0
** 
** FIELD OUTPUT: F-Output-1
** 
*Output, field, variable=PRESELECT
** 
** HISTORY OUTPUT: H-Output-1
** 
*Output, history, variable=PRESELECT
*End Step
